1H1Q
                    3D
 Schrodinger Suite 2022-2.
 45 48  0  0  1  0            999 V2000
    7.8210   43.7020   49.3990 C   0  0  0  0  0  0
   10.7390   46.1550   51.6470 C   0  0  0  0  0  0
    5.1160   45.2740   51.6170 C   0  0  0  0  0  0
    4.1070   45.7240   52.7030 C   0  0  0  0  0  0
    2.7660   45.9860   51.9860 C   0  0  0  0  0  0
    1.5620   46.0860   52.9390 C   0  0  0  0  0  0
    1.4480   44.9690   53.9870 C   0  0  0  0  0  0
    2.7870   44.7400   54.7250 C   0  0  0  0  0  0
    4.0090   44.6090   53.7920 C   0  0  0  0  0  0
    4.6670   40.9170   47.4030 C   0  0  0  0  0  0
    4.0590   40.6480   48.6330 C   0  0  0  0  0  0
    4.6450   41.0930   49.8150 C   0  0  0  0  0  0
    5.8520   41.7890   49.8080 C   0  0  0  0  0  0
    6.8700   44.4890   50.1810 N   0  0  0  0  0  0
    7.2370   45.3850   51.0370 C   0  0  0  0  0  0
    6.3200   46.0740   51.7360 O   0  0  0  0  0  0
    8.6590   45.6250   51.1990 C   0  0  0  0  0  0
    9.5490   46.4520   51.9630 N   0  0  0  0  0  0
   10.7730   45.2130   50.7360 N   0  0  0  0  0  0
    9.5340   44.9120   50.4780 C   0  0  0  0  0  0
    9.0610   43.9200   49.5710 N   0  0  0  0  0  0
    7.6000   42.7620   48.5320 N   0  0  0  0  0  0
    6.4450   42.0610   48.5810 C   0  0  0  0  0  0
    5.8550   41.6320   47.3960 C   0  0  0  0  0  0
   11.5662   46.6643   52.1189 H   0  0  0  0  0  0
    4.6775   45.4225   50.6302 H   0  0  0  0  0  0
    5.3628   44.2225   51.7641 H   0  0  0  0  0  0
    4.4581   46.6481   53.1622 H   0  0  0  0  0  0
    2.5854   45.1961   51.2570 H   0  0  0  0  0  0
    2.8416   46.9029   51.4015 H   0  0  0  0  0  0
    0.6428   46.1264   52.3546 H   0  0  0  0  0  0
    1.5815   47.0521   53.4434 H   0  0  0  0  0  0
    1.1399   44.0442   53.4993 H   0  0  0  0  0  0
    0.6748   45.2279   54.7104 H   0  0  0  0  0  0
    2.7092   43.8475   55.3459 H   0  0  0  0  0  0
    2.9556   45.5551   55.4288 H   0  0  0  0  0  0
    4.9208   44.6063   54.3892 H   0  0  0  0  0  0
    3.9911   43.6323   53.3084 H   0  0  0  0  0  0
    4.2108   40.5699   46.4877 H   0  0  0  0  0  0
    3.1327   40.0939   48.6677 H   0  0  0  0  0  0
    4.1634   40.9006   50.7623 H   0  0  0  0  0  0
    6.3008   42.1012   50.7394 H   0  0  0  0  0  0
    9.3735   47.1694   52.6519 H   0  0  0  0  0  0
    8.2898   42.5561   47.8235 H   0  0  0  0  0  0
    6.3393   41.8654   46.4593 H   0  0  0  0  0  0
  1 14  2  0  0  0
  1 21  1  0  0  0
  1 22  1  0  0  0
  2 18  1  0  0  0
  2 19  2  0  0  0
  2 25  1  0  0  0
  3  4  1  0  0  0
  3 16  1  0  0  0
  3 26  1  0  0  0
  3 27  1  0  0  0
  4  5  1  0  0  0
  4  9  1  0  0  0
  4 28  1  0  0  0
  5  6  1  0  0  0
  5 29  1  0  0  0
  5 30  1  0  0  0
  6  7  1  0  0  0
  6 31  1  0  0  0
  6 32  1  0  0  0
  7  8  1  0  0  0
  7 33  1  0  0  0
  7 34  1  0  0  0
  8  9  1  0  0  0
  8 35  1  0  0  0
  8 36  1  0  0  0
  9 37  1  0  0  0
  9 38  1  0  0  0
 10 11  2  0  0  0
 10 24  1  0  0  0
 10 39  1  0  0  0
 11 12  1  0  0  0
 11 40  1  0  0  0
 12 13  2  0  0  0
 12 41  1  0  0  0
 13 23  1  0  0  0
 13 42  1  0  0  0
 14 15  1  0  0  0
 15 16  1  0  0  0
 15 17  2  0  0  0
 17 18  1  0  0  0
 17 20  1  0  0  0
 18 43  1  0  0  0
 19 20  1  0  0  0
 20 21  2  0  0  0
 22 23  1  0  0  0
 22 44  1  0  0  0
 23 24  2  0  0  0
 24 45  1  0  0  0
M  END
> <s_m_entry_id>
1

> <s_m_entry_name>
1h1q.1

> <s_pdb_PDB_TITLE>
STRUCTURE OF HUMAN THR160-PHOSPHO CDK2/CYCLIN A COMPLEXED WITH THE INHIBITOR NU6094

> <s_pdb_PDB_ID>
1H1Q

> <r_pdb_PDB_CRYST1_a>
73.99

> <r_pdb_PDB_CRYST1_b>
134.73

> <r_pdb_PDB_CRYST1_c>
148.12

> <r_pdb_PDB_CRYST1_alpha>
90

> <r_pdb_PDB_CRYST1_beta>
90

> <r_pdb_PDB_CRYST1_gamma>
90

> <s_pdb_PDB_CRYST1_Space_Group>
P 21 21 21

> <i_pdb_PDB_CRYST1_z>
8

> <s_pdb_PDB_CLASSIFICATION>
TRANSFERASE

> <s_pdb_PDB_DEPOSITION_DATE>
21-JUL-02

> <s_pdb_PDB_format_version>
3.15

> <r_pdb_PDB_R>
0.238

> <r_pdb_PDB_Rfree>
0.332

> <r_pdb_PDB_RESOLUTION>
2.5

> <s_pdb_PDB_EXPDTA>
X-RAY DIFFRACTION

> <r_pdb_PDB_EXPDTA_TEMPERATURE>
100

> <r_pdb_PDB_EXPDTA_PH>
7

> <s_pdb_PDB_REMARK_350_Biomolecule_1_Transform_1_Chains>
A, B

> <s_pdb_PDB_REMARK_350_Biomolecule_1_Transform_1_Matrix_1>
1.000000 0.000000 0.000000   0.000000;0.000000 1.000000 0.000000   0.000000;0.000000 0.000000 1.000000   0.000000

> <s_pdb_PDB_REMARK_350_Biomolecule_2_Transform_1_Chains>
C, D

> <s_pdb_PDB_REMARK_350_Biomolecule_2_Transform_1_Matrix_1>
1.000000 0.000000 0.000000   0.000000;0.000000 1.000000 0.000000   0.000000;0.000000 0.000000 1.000000   0.000000

> <s_m_Source_Path>
/Users/sheenam

> <s_m_Source_File>
1h1q.pdb

> <i_m_Source_File_Index>
1

$$$$
