@<TRIPOS>MOLECULE
1H1Q
45   48    1
SMALL
USER_CHARGES


@<TRIPOS>ATOM
      1 C1          7.8210   43.7020   49.3990 C.ar      1 LIG         0.0000 
      2 C2         10.7390   46.1550   51.6470 C.ar      1 LIG         0.0000 
      3 C3          5.1160   45.2740   51.6170 C.3       1 LIG         0.0000 
      4 C4          4.1070   45.7240   52.7030 C.3       1 LIG         0.0000 
      5 C5          2.7660   45.9860   51.9860 C.3       1 LIG         0.0000 
      6 C6          1.5620   46.0860   52.9390 C.3       1 LIG         0.0000 
      7 C7          1.4480   44.9690   53.9870 C.3       1 LIG         0.0000 
      8 C8          2.7870   44.7400   54.7250 C.3       1 LIG         0.0000 
      9 C9          4.0090   44.6090   53.7920 C.3       1 LIG         0.0000 
     10 C10         4.6670   40.9170   47.4030 C.ar      1 LIG         0.0000 
     11 C11         4.0590   40.6480   48.6330 C.ar      1 LIG         0.0000 
     12 C12         4.6450   41.0930   49.8150 C.ar      1 LIG         0.0000 
     13 C13         5.8520   41.7890   49.8080 C.ar      1 LIG         0.0000 
     14 N14         6.8700   44.4890   50.1810 N.ar      1 LIG         0.0000 
     15 C15         7.2370   45.3850   51.0370 C.ar      1 LIG         0.0000 
     16 O16         6.3200   46.0740   51.7360 O.3       1 LIG         0.0000 
     17 C17         8.6590   45.6250   51.1990 C.ar      1 LIG         0.0000 
     18 N18         9.5490   46.4520   51.9630 N.2       1 LIG         0.0000 
     19 N19        10.7730   45.2130   50.7360 N.pl3     1 LIG         0.0000 
     20 C20         9.5340   44.9120   50.4780 C.ar      1 LIG         0.0000 
     21 N21         9.0610   43.9200   49.5710 N.ar      1 LIG         0.0000 
     22 N22         7.6000   42.7620   48.5320 N.pl3     1 LIG         0.0000 
     23 C23         6.4450   42.0610   48.5810 C.ar      1 LIG         0.0000 
     24 C24         5.8550   41.6320   47.3960 C.ar      1 LIG         0.0000 
     25 H25         4.6775   45.4225   50.6302 H         1 LIG         0.0000 
     26 H26         5.3628   44.2225   51.7641 H         1 LIG         0.0000 
     27 H27         4.4581   46.6481   53.1622 H         1 LIG         0.0000 
     28 H28         2.5854   45.1961   51.2570 H         1 LIG         0.0000 
     29 H29         2.8416   46.9029   51.4015 H         1 LIG         0.0000 
     30 H30         0.6428   46.1264   52.3546 H         1 LIG         0.0000 
     31 H31         1.5815   47.0521   53.4434 H         1 LIG         0.0000 
     32 H32         1.1399   44.0442   53.4993 H         1 LIG         0.0000 
     33 H33         0.6748   45.2279   54.7104 H         1 LIG         0.0000 
     34 H34         2.7092   43.8475   55.3459 H         1 LIG         0.0000 
     35 H35         2.9556   45.5551   55.4288 H         1 LIG         0.0000 
     36 H36         4.9208   44.6063   54.3892 H         1 LIG         0.0000 
     37 H37         3.9911   43.6323   53.3084 H         1 LIG         0.0000 
     38 H38         4.2108   40.5699   46.4877 H         1 LIG         0.0000 
     39 H39         3.1327   40.0939   48.6677 H         1 LIG         0.0000 
     40 H40         4.1634   40.9006   50.7623 H         1 LIG         0.0000 
     41 H41         6.3008   42.1012   50.7394 H         1 LIG         0.0000 
     42 H42         8.2898   42.5561   47.8235 H         1 LIG         0.0000 
     43 H43         6.3393   41.8654   46.4593 H         1 LIG         0.0000 
     44 H44        11.5200   44.7341   50.2536 H         1 LIG         0.0000 
     45 H45        11.5662   46.6643   52.1189 H         1 LIG         0.0000 
@<TRIPOS>BOND
     1    1   14 ar   
     2    1   21 ar   
     3    1   22 1    
     4    2   18 ar   
     5    2   19 ar   
     6    2   45 1    
     7    3    4 1    
     8    3   16 1    
     9    3   25 1    
    10    3   26 1    
    11    4    5 1    
    12    4    9 1    
    13    4   27 1    
    14    5    6 1    
    15    5   28 1    
    16    5   29 1    
    17    6    7 1    
    18    6   30 1    
    19    6   31 1    
    20    7    8 1    
    21    7   32 1    
    22    7   33 1    
    23    8    9 1    
    24    8   34 1    
    25    8   35 1    
    26    9   36 1    
    27    9   37 1    
    28   10   11 ar   
    29   10   24 ar   
    30   10   38 1    
    31   11   12 ar   
    32   11   39 1    
    33   12   13 ar   
    34   12   40 1    
    35   13   23 ar   
    36   13   41 1    
    37   14   15 ar   
    38   15   16 1    
    39   15   17 ar   
    40   17   18 ar   
    41   17   20 ar   
    42   19   20 ar   
    43   19   44 1    
    44   20   21 ar   
    45   22   23 1    
    46   22   42 1    
    47   23   24 ar   
    48   24   43 1    
@<TRIPOS>SUBSTRUCTURE
     1 LIG         1 GROUP             0       ****    0 ROOT    
