@<TRIPOS>MOLECULE
1H1R
45   48    1
SMALL
USER_CHARGES


@<TRIPOS>ATOM
      1 C1          8.2730   43.8540   49.7200 C.ar      1 LIG         0.0000 
      2 C2         11.1310   46.4380   52.1100 C.ar      1 LIG         0.0000 
      3 C3          5.5450   45.5290   51.8610 C.3       1 LIG         0.0000 
      4 C4          4.4980   45.9170   52.8940 C.3       1 LIG         0.0000 
      5 C5          4.6810   45.2640   54.2930 C.3       1 LIG         0.0000 
      6 C6          3.6190   45.5920   55.3380 C.3       1 LIG         0.0000 
      7 C7          2.1490   45.2400   54.7900 C.3       1 LIG         0.0000 
      8 C8          1.9870   45.9430   53.4450 C.3       1 LIG         0.0000 
      9 C9          3.0800   45.6370   52.3580 C.3       1 LIG         0.0000 
     10 C10         5.0490   41.1710   47.4170 C.ar      1 LIG         0.0000 
     11 C11         4.3320   40.8230   48.5620 C.ar      1 LIG         0.0000 
     12 C12         4.7770   41.2120   49.8320 C.ar      1 LIG         0.0000 
     13 C13         5.9530   41.9530   49.9230 C.ar      1 LIG         0.0000 
     14 N14         7.2960   44.5980   50.5040 N.ar      1 LIG         0.0000 
     15 C15         7.6880   45.5050   51.3510 C.ar      1 LIG         0.0000 
     16 O16         6.8040   46.2010   52.0640 O.3       1 LIG         0.0000 
     17 C17         9.0930   45.7840   51.5470 C.ar      1 LIG         0.0000 
     18 N18         9.8900   46.6560   52.3640 N.2       1 LIG         0.0000 
     19 N19        11.2310   45.5000   51.1730 N.pl3     1 LIG         0.0000 
     20 C20        10.0070   45.0950   50.8360 C.ar      1 LIG         0.0000 
     21 N21         9.5500   44.0970   49.9120 N.ar      1 LIG         0.0000 
     22 N22         7.8780   42.9620   48.8630 N.pl3     1 LIG         0.0000 
     23 C23         6.6970   42.3100   48.8040 C.ar      1 LIG         0.0000 
     24 C24         6.2490   41.9030   47.5330 C.ar      1 LIG         0.0000 
     25 Cl25        4.5030   40.6710   45.8250 Cl        1 LIG         0.0000 
     26 H26         5.1703   45.7555   50.8628 H         1 LIG         0.0000 
     27 H27         5.7011   44.4506   51.8909 H         1 LIG         0.0000 
     28 H28         4.5763   46.9950   53.0349 H         1 LIG         0.0000 
     29 H29         5.6638   45.5251   54.6855 H         1 LIG         0.0000 
     30 H30         4.7499   44.1823   54.1782 H         1 LIG         0.0000 
     31 H31         3.6695   46.6521   55.5864 H         1 LIG         0.0000 
     32 H32         3.8144   45.0209   56.2456 H         1 LIG         0.0000 
     33 H33         1.4018   45.6167   55.4884 H         1 LIG         0.0000 
     34 H34         2.0630   44.1626   54.6488 H         1 LIG         0.0000 
     35 H35         1.9331   47.0196   53.6068 H         1 LIG         0.0000 
     36 H36         1.0019   45.7158   53.0375 H         1 LIG         0.0000 
     37 H37         3.0068   44.5929   52.0538 H         1 LIG         0.0000 
     38 H38         2.8973   46.2518   51.4767 H         1 LIG         0.0000 
     39 H39         3.4225   40.2471   48.4754 H         1 LIG         0.0000 
     40 H40         4.2116   40.9368   50.7100 H         1 LIG         0.0000 
     41 H41         6.3172   42.2715   50.8886 H         1 LIG         0.0000 
     42 H42         8.4921   42.6739   48.1146 H         1 LIG         0.0000 
     43 H43         6.8193   42.1486   46.6493 H         1 LIG         0.0000 
     44 H44        12.0391   45.0922   50.7249 H         1 LIG         0.0000 
     45 H45        11.8951   46.9901   52.6370 H         1 LIG         0.0000 
@<TRIPOS>BOND
     1    1   14 ar   
     2    1   21 ar   
     3    1   22 1    
     4    2   18 ar   
     5    2   19 ar   
     6    2   45 1    
     7    3    4 1    
     8    3   16 1    
     9    3   26 1    
    10    3   27 1    
    11    4    5 1    
    12    4    9 1    
    13    4   28 1    
    14    5    6 1    
    15    5   29 1    
    16    5   30 1    
    17    6    7 1    
    18    6   31 1    
    19    6   32 1    
    20    7    8 1    
    21    7   33 1    
    22    7   34 1    
    23    8    9 1    
    24    8   35 1    
    25    8   36 1    
    26    9   37 1    
    27    9   38 1    
    28   10   11 ar   
    29   10   24 ar   
    30   10   25 1    
    31   11   12 ar   
    32   11   39 1    
    33   12   13 ar   
    34   12   40 1    
    35   13   23 ar   
    36   13   41 1    
    37   14   15 ar   
    38   15   16 1    
    39   15   17 ar   
    40   17   18 ar   
    41   17   20 ar   
    42   19   20 ar   
    43   19   44 1    
    44   20   21 ar   
    45   22   23 1    
    46   22   42 1    
    47   23   24 ar   
    48   24   43 1    
@<TRIPOS>SUBSTRUCTURE
     1 LIG         1 GROUP             0       ****    0 ROOT    
