1H1R
                    3D
 Schrodinger Suite 2022-2.
 45 48  0  0  1  0            999 V2000
    8.2730   43.8540   49.7200 C   0  0  0  0  0  0
   11.1310   46.4380   52.1100 C   0  0  0  0  0  0
    5.5450   45.5290   51.8610 C   0  0  0  0  0  0
    4.4980   45.9170   52.8940 C   0  0  0  0  0  0
    4.6810   45.2640   54.2930 C   0  0  0  0  0  0
    3.6190   45.5920   55.3380 C   0  0  0  0  0  0
    2.1490   45.2400   54.7900 C   0  0  0  0  0  0
    1.9870   45.9430   53.4450 C   0  0  0  0  0  0
    3.0800   45.6370   52.3580 C   0  0  0  0  0  0
    5.0490   41.1710   47.4170 C   0  0  0  0  0  0
    4.3320   40.8230   48.5620 C   0  0  0  0  0  0
    4.7770   41.2120   49.8320 C   0  0  0  0  0  0
    5.9530   41.9530   49.9230 C   0  0  0  0  0  0
    7.2960   44.5980   50.5040 N   0  0  0  0  0  0
    7.6880   45.5050   51.3510 C   0  0  0  0  0  0
    6.8040   46.2010   52.0640 O   0  0  0  0  0  0
    9.0930   45.7840   51.5470 C   0  0  0  0  0  0
    9.8900   46.6560   52.3640 N   0  0  0  0  0  0
   11.2310   45.5000   51.1730 N   0  0  0  0  0  0
   10.0070   45.0950   50.8360 C   0  0  0  0  0  0
    9.5500   44.0970   49.9120 N   0  0  0  0  0  0
    7.8780   42.9620   48.8630 N   0  0  0  0  0  0
    6.6970   42.3100   48.8040 C   0  0  0  0  0  0
    6.2490   41.9030   47.5330 C   0  0  0  0  0  0
    4.5030   40.6710   45.8250 Cl  0  0  0  0  0  0
   11.8951   46.9901   52.6370 H   0  0  0  0  0  0
    5.1703   45.7555   50.8628 H   0  0  0  0  0  0
    5.7011   44.4506   51.8909 H   0  0  0  0  0  0
    4.5763   46.9950   53.0349 H   0  0  0  0  0  0
    5.6638   45.5251   54.6855 H   0  0  0  0  0  0
    4.7499   44.1823   54.1782 H   0  0  0  0  0  0
    3.6695   46.6521   55.5864 H   0  0  0  0  0  0
    3.8144   45.0209   56.2456 H   0  0  0  0  0  0
    1.4018   45.6167   55.4884 H   0  0  0  0  0  0
    2.0630   44.1626   54.6488 H   0  0  0  0  0  0
    1.9331   47.0196   53.6068 H   0  0  0  0  0  0
    1.0019   45.7158   53.0375 H   0  0  0  0  0  0
    3.0068   44.5929   52.0538 H   0  0  0  0  0  0
    2.8973   46.2518   51.4767 H   0  0  0  0  0  0
    3.4225   40.2471   48.4754 H   0  0  0  0  0  0
    4.2116   40.9368   50.7100 H   0  0  0  0  0  0
    6.3172   42.2715   50.8886 H   0  0  0  0  0  0
    9.6292   47.3524   53.0475 H   0  0  0  0  0  0
    8.4921   42.6739   48.1146 H   0  0  0  0  0  0
    6.8193   42.1486   46.6493 H   0  0  0  0  0  0
  1 14  2  0  0  0
  1 21  1  0  0  0
  1 22  1  0  0  0
  2 18  1  0  0  0
  2 19  2  0  0  0
  2 26  1  0  0  0
  3  4  1  0  0  0
  3 16  1  0  0  0
  3 27  1  0  0  0
  3 28  1  0  0  0
  4  5  1  0  0  0
  4  9  1  0  0  0
  4 29  1  0  0  0
  5  6  1  0  0  0
  5 30  1  0  0  0
  5 31  1  0  0  0
  6  7  1  0  0  0
  6 32  1  0  0  0
  6 33  1  0  0  0
  7  8  1  0  0  0
  7 34  1  0  0  0
  7 35  1  0  0  0
  8  9  1  0  0  0
  8 36  1  0  0  0
  8 37  1  0  0  0
  9 38  1  0  0  0
  9 39  1  0  0  0
 10 11  2  0  0  0
 10 24  1  0  0  0
 10 25  1  0  0  0
 11 12  1  0  0  0
 11 40  1  0  0  0
 12 13  2  0  0  0
 12 41  1  0  0  0
 13 23  1  0  0  0
 13 42  1  0  0  0
 14 15  1  0  0  0
 15 16  1  0  0  0
 15 17  2  0  0  0
 17 18  1  0  0  0
 17 20  1  0  0  0
 18 43  1  0  0  0
 19 20  1  0  0  0
 20 21  2  0  0  0
 22 23  1  0  0  0
 22 44  1  0  0  0
 23 24  2  0  0  0
 24 45  1  0  0  0
M  END
> <s_m_entry_id>
2

> <s_m_entry_name>
1h1r.1

> <s_pdb_PDB_TITLE>
STRUCTURE OF HUMAN THR160-PHOSPHO CDK2/CYCLIN A COMPLEXED WITH THE INHIBITOR NU6086

> <s_pdb_PDB_ID>
1H1R

> <r_pdb_PDB_CRYST1_a>
74.11

> <r_pdb_PDB_CRYST1_b>
134.95

> <r_pdb_PDB_CRYST1_c>
148.33

> <r_pdb_PDB_CRYST1_alpha>
90

> <r_pdb_PDB_CRYST1_beta>
90

> <r_pdb_PDB_CRYST1_gamma>
90

> <s_pdb_PDB_CRYST1_Space_Group>
P 21 21 21

> <i_pdb_PDB_CRYST1_z>
8

> <s_pdb_PDB_CLASSIFICATION>
TRANSFERASE

> <s_pdb_PDB_DEPOSITION_DATE>
21-JUL-02

> <s_pdb_PDB_format_version>
3.30

> <r_pdb_PDB_R>
0.235

> <r_pdb_PDB_Rfree>
0.294

> <r_pdb_PDB_RESOLUTION>
2

> <s_pdb_PDB_EXPDTA>
X-RAY DIFFRACTION

> <r_pdb_PDB_EXPDTA_TEMPERATURE>
100

> <r_pdb_PDB_EXPDTA_PH>
7

> <s_pdb_PDB_REMARK_350_Biomolecule_1_Transform_1_Chains>
A, B

> <s_pdb_PDB_REMARK_350_Biomolecule_1_Transform_1_Matrix_1>
1.000000 0.000000 0.000000   0.000000;0.000000 1.000000 0.000000   0.000000;0.000000 0.000000 1.000000   0.000000

> <s_pdb_PDB_REMARK_350_Biomolecule_2_Transform_1_Chains>
C, D

> <s_pdb_PDB_REMARK_350_Biomolecule_2_Transform_1_Matrix_1>
1.000000 0.000000 0.000000   0.000000;0.000000 1.000000 0.000000   0.000000;0.000000 0.000000 1.000000   0.000000

> <s_m_Source_Path>
/Users/sheenam

> <s_m_Source_File>
1h1r.pdb

> <i_m_Source_File_Index>
1

$$$$
