@<TRIPOS>MOLECULE
1H1S
50   53    1
SMALL
USER_CHARGES


@<TRIPOS>ATOM
      1 C2          7.6500   43.8340   49.7640 C.ar      1 LIG         0.0000 
      2 C8         10.4750   46.4910   51.9330 C.ar      1 LIG         0.0000 
      3 C10         4.8960   45.7490   51.7150 C.3       1 LIG         0.0000 
      4 C11         3.9390   46.1020   52.8920 C.3       1 LIG         0.0000 
      5 C12         4.2880   45.4670   54.2670 C.3       1 LIG         0.0000 
      6 C13         3.3970   45.8570   55.4410 C.3       1 LIG         0.0000 
      7 C14         1.8520   45.5580   55.1100 C.3       1 LIG         0.0000 
      8 C15         1.5320   46.2430   53.7850 C.3       1 LIG         0.0000 
      9 C16         2.4500   45.8720   52.5650 C.3       1 LIG         0.0000 
     10 C19         4.4350   40.8130   47.8880 C.ar      1 LIG         0.0000 
     11 C20         3.6020   40.7530   48.9770 C.ar      1 LIG         0.0000 
     12 C21         4.0230   41.4320   50.1800 C.ar      1 LIG         0.0000 
     13 C22         5.2240   42.1010   50.1750 C.ar      1 LIG         0.0000 
     14 N26         1.0630   40.4980   49.8460 N.pl3     1 LIG         0.0000 
     15 N1          6.6580   44.5200   50.5610 N.ar      1 LIG         0.0000 
     16 C6          7.0800   45.4670   51.3690 C.ar      1 LIG         0.0000 
     17 O6          6.2540   46.2290   52.0730 O.3       1 LIG         0.0000 
     18 C5          8.4650   45.7670   51.5400 C.ar      1 LIG         0.0000 
     19 N7          9.2320   46.7290   52.2560 N.2       1 LIG         0.0000 
     20 N9         10.5880   45.5050   51.0470 N.pl3     1 LIG         0.0000 
     21 C4          9.3620   45.1110   50.8140 C.ar      1 LIG         0.0000 
     22 N3          8.8790   44.0990   49.9700 N.ar      1 LIG         0.0000 
     23 N2          7.2860   42.8560   48.9780 N.pl3     1 LIG         0.0000 
     24 C17         6.0650   42.2250   49.0670 C.ar      1 LIG         0.0000 
     25 C18         5.6110   41.5340   47.9220 C.ar      1 LIG         0.0000 
     26 S23         2.1470   39.7960   48.9300 S.o2      1 LIG         0.0000 
     27 O24         2.4550   38.5120   49.5420 O.2       1 LIG         0.0000 
     28 O25         1.5530   39.7400   47.5990 O.2       1 LIG         0.0000 
     29 HC8        11.2693   47.0721   52.3778 H         1 LIG         0.0000 
     30 H101        4.5595   46.2543   50.8097 H         1 LIG         0.0000 
     31 H102        4.9179   44.6680   51.5769 H         1 LIG         0.0000 
     32 HC11        4.0411   47.1777   53.0356 H         1 LIG         0.0000 
     33 H121        5.3256   45.6921   54.5135 H         1 LIG         0.0000 
     34 H122        4.2981   44.3815   54.1690 H         1 LIG         0.0000 
     35 H131        3.5234   46.9181   55.6557 H         1 LIG         0.0000 
     36 H132        3.6944   45.2933   56.3253 H         1 LIG         0.0000 
     37 H141        1.2248   45.9781   55.8962 H         1 LIG         0.0000 
     38 H142        1.7046   44.4829   55.0073 H         1 LIG         0.0000 
     39 H151        1.5435   47.3236   53.9275 H         1 LIG         0.0000 
     40 H152        0.4916   46.0502   53.5232 H         1 LIG         0.0000 
     41 H161        2.2944   44.8266   52.2986 H         1 LIG         0.0000 
     42 H162        2.1701   46.4776   51.7030 H         1 LIG         0.0000 
     43 HC19        4.1753   40.2891   46.9800 H         1 LIG         0.0000 
     44 HC21        3.3981   41.4078   51.0605 H         1 LIG         0.0000 
     45 HC22        5.5790   42.5801   51.0755 H         1 LIG         0.0000 
     46 H261        0.1453   40.0884   49.9468 H         1 LIG         0.0000 
     47 H262        1.2892   41.3554   50.3295 H         1 LIG         0.0000 
     48 HN9        11.5002   45.2275   50.7138 H         1 LIG         0.0000 
     49 HN2         7.9136   42.5258   48.2589 H         1 LIG         0.0000 
     50 HC18        6.2357   41.5899   47.0428 H         1 LIG         0.0000 
@<TRIPOS>BOND
     1    1   15 ar   
     2    1   22 ar   
     3    1   23 1    
     4    2   19 ar   
     5    2   20 ar   
     6    2   29 1    
     7    3    4 1    
     8    3   17 1    
     9    3   30 1    
    10    3   31 1    
    11    4    5 1    
    12    4    9 1    
    13    4   32 1    
    14    5    6 1    
    15    5   33 1    
    16    5   34 1    
    17    6    7 1    
    18    6   35 1    
    19    6   36 1    
    20    7    8 1    
    21    7   37 1    
    22    7   38 1    
    23    8    9 1    
    24    8   39 1    
    25    8   40 1    
    26    9   41 1    
    27    9   42 1    
    28   10   11 ar   
    29   10   25 ar   
    30   10   43 1    
    31   11   12 ar   
    32   11   26 1    
    33   12   13 ar   
    34   12   44 1    
    35   13   24 ar   
    36   13   45 1    
    37   14   26 1    
    38   14   46 1    
    39   14   47 1    
    40   15   16 ar   
    41   16   17 1    
    42   16   18 ar   
    43   18   19 ar   
    44   18   21 ar   
    45   20   21 ar   
    46   20   48 1    
    47   21   22 ar   
    48   23   24 1    
    49   23   49 1    
    50   24   25 ar   
    51   25   50 1    
    52   26   27 2    
    53   26   28 2    
@<TRIPOS>SUBSTRUCTURE
     1 LIG         1 GROUP             0 A     ****    0 ROOT    
