@<TRIPOS>MOLECULE
1OI9
46   49    1
SMALL
USER_CHARGES


@<TRIPOS>ATOM
      1 C2          7.9430   43.7940   49.8040 C.ar      1 LIG         0.0000 
      2 O23         2.8750   40.0740   48.9520 O.3       1 LIG         0.0000 
      3 C8         10.6830   46.4870   52.0230 C.ar      1 LIG         0.0000 
      4 C10         4.9330   45.9430   51.6860 C.3       1 LIG         0.0000 
      5 C11         4.0360   46.1890   52.8930 C.3       1 LIG         0.0000 
      6 C12         2.6070   45.7530   52.5480 C.3       1 LIG         0.0000 
      7 C13         1.6340   45.8910   53.7310 C.3       1 LIG         0.0000 
      8 C14         2.1950   45.3580   55.0540 C.3       1 LIG         0.0000 
      9 C15         3.6340   45.8150   55.3170 C.3       1 LIG         0.0000 
     10 C16         4.5400   45.4600   54.1420 C.3       1 LIG         0.0000 
     11 C19         4.4640   41.3480   50.0690 C.ar      1 LIG         0.0000 
     12 C20         4.0280   40.7240   48.9090 C.ar      1 LIG         0.0000 
     13 C21         4.7660   40.8070   47.7340 C.ar      1 LIG         0.0000 
     14 C22         5.9740   41.5130   47.7500 C.ar      1 LIG         0.0000 
     15 N1          6.9900   44.4610   50.5040 N.ar      1 LIG         0.0000 
     16 C6          7.2750   45.4390   51.3880 C.ar      1 LIG         0.0000 
     17 O6          6.2950   46.1090   52.0700 O.3       1 LIG         0.0000 
     18 C5          8.6840   45.7920   51.5760 C.ar      1 LIG         0.0000 
     19 N7          9.3440   46.7070   52.3490 N.2       1 LIG         0.0000 
     20 N9         10.9380   45.4970   51.0720 N.pl3     1 LIG         0.0000 
     21 C4          9.6430   45.0600   50.8010 C.ar      1 LIG         0.0000 
     22 N3          9.2660   44.0820   49.9480 N.ar      1 LIG         0.0000 
     23 N2          7.5750   42.8240   48.9260 N.pl3     1 LIG         0.0000 
     24 C17         6.4030   42.1440   48.9250 C.ar      1 LIG         0.0000 
     25 C18         5.6420   42.0570   50.0830 C.ar      1 LIG         0.0000 
     26 HO23        2.6907   39.6911   48.0912 H         1 LIG         0.0000 
     27 HC8        11.4576   47.0694   52.4998 H         1 LIG         0.0000 
     28 H101        4.6878   46.6571   50.8999 H         1 LIG         0.0000 
     29 H102        4.7799   44.9275   51.3208 H         1 LIG         0.0000 
     30 HC11        4.0271   47.2589   53.1009 H         1 LIG         0.0000 
     31 H121        2.6168   44.7180   52.2061 H         1 LIG         0.0000 
     32 H122        2.2413   46.3432   51.7077 H         1 LIG         0.0000 
     33 H131        0.7044   45.3720   53.4971 H         1 LIG         0.0000 
     34 H132        1.3573   46.9384   53.8514 H         1 LIG         0.0000 
     35 H141        2.1557   44.2687   55.0514 H         1 LIG         0.0000 
     36 H142        1.5561   45.6827   55.8753 H         1 LIG         0.0000 
     37 H151        4.0077   45.3349   56.2214 H         1 LIG         0.0000 
     38 H152        3.6493   46.8935   55.4742 H         1 LIG         0.0000 
     39 H161        5.5596   45.7773   54.3609 H         1 LIG         0.0000 
     40 H162        4.5087   44.3838   53.9717 H         1 LIG         0.0000 
     41 HC19        3.8764   41.2795   50.9726 H         1 LIG         0.0000 
     42 HC21        4.4038   40.3322   46.8341 H         1 LIG         0.0000 
     43 HC22        6.5769   41.5720   46.8559 H         1 LIG         0.0000 
     44 HN9        11.8876   45.3013   50.7889 H         1 LIG         0.0000 
     45 HN2         8.2034   42.5491   48.1846 H         1 LIG         0.0000 
     46 HC18        5.9698   42.5417   50.9908 H         1 LIG         0.0000 
@<TRIPOS>BOND
     1    1   15 ar   
     2    1   22 ar   
     3    1   23 1    
     4    2   12 1    
     5    2   26 1    
     6    3   19 ar   
     7    3   20 ar   
     8    3   27 1    
     9    4    5 1    
    10    4   17 1    
    11    4   28 1    
    12    4   29 1    
    13    5    6 1    
    14    5   10 1    
    15    5   30 1    
    16    6    7 1    
    17    6   31 1    
    18    6   32 1    
    19    7    8 1    
    20    7   33 1    
    21    7   34 1    
    22    8    9 1    
    23    8   35 1    
    24    8   36 1    
    25    9   10 1    
    26    9   37 1    
    27    9   38 1    
    28   10   39 1    
    29   10   40 1    
    30   11   12 ar   
    31   11   25 ar   
    32   11   41 1    
    33   12   13 ar   
    34   13   14 ar   
    35   13   42 1    
    36   14   24 ar   
    37   14   43 1    
    38   15   16 ar   
    39   16   17 1    
    40   16   18 ar   
    41   18   19 ar   
    42   18   21 ar   
    43   20   21 ar   
    44   20   44 1    
    45   21   22 ar   
    46   23   24 1    
    47   23   45 1    
    48   24   25 ar   
    49   25   46 1    
@<TRIPOS>SUBSTRUCTURE
     1 LIG         1 GROUP             0 A     ****    0 ROOT    
