@<TRIPOS>MOLECULE
1OIU
50   53    1
SMALL
USER_CHARGES


@<TRIPOS>ATOM
      1 C2          7.9160   43.6120   49.8510 C.ar      1 LIG         0.0000 
      2 C8         10.5520   46.4410   52.0420 C.ar      1 LIG         0.0000 
      3 C10         4.8670   45.3510   51.9070 C.3       1 LIG         0.0000 
      4 C11         4.0240   45.8620   53.0570 C.3       1 LIG         0.0000 
      5 C12         2.5620   45.5450   52.7500 C.3       1 LIG         0.0000 
      6 C13         1.6820   46.0090   53.9120 C.3       1 LIG         0.0000 
      7 C14         2.1170   45.3790   55.2320 C.3       1 LIG         0.0000 
      8 C15         3.6010   45.6060   55.5280 C.3       1 LIG         0.0000 
      9 C16         4.4730   45.1740   54.3530 C.3       1 LIG         0.0000 
     10 C19         3.9800   40.7090   48.5370 C.ar      1 LIG         0.0000 
     11 C20         4.8080   40.9170   47.4370 C.ar      1 LIG         0.0000 
     12 N2          7.6260   42.6110   48.9930 N.pl3     1 LIG         0.0000 
     13 C21         6.0320   41.5580   47.6210 C.ar      1 LIG         0.0000 
     14 C22         6.4230   41.9980   48.8840 C.ar      1 LIG         0.0000 
     15 N26         4.0430   38.8600   46.0080 N.pl3     1 LIG         0.0000 
     16 N1          6.9350   44.2280   50.5510 N.ar      1 LIG         0.0000 
     17 C6          7.1960   45.2310   51.4250 C.ar      1 LIG         0.0000 
     18 O6          6.1920   45.8270   52.1090 O.3       1 LIG         0.0000 
     19 C5          8.5840   45.6720   51.6220 C.ar      1 LIG         0.0000 
     20 N7          9.2230   46.6190   52.3980 N.2       1 LIG         0.0000 
     21 N9         10.8110   45.4370   51.1020 N.pl3     1 LIG         0.0000 
     22 C4          9.5550   44.9660   50.8410 C.ar      1 LIG         0.0000 
     23 N3          9.2100   43.9690   49.9980 N.ar      1 LIG         0.0000 
     24 C17         5.5980   41.7740   49.9860 C.ar      1 LIG         0.0000 
     25 C18         4.3750   41.1310   49.8100 C.ar      1 LIG         0.0000 
     26 S23         4.3510   40.4270   45.9660 S.o2      1 LIG         0.0000 
     27 O24         5.3810   40.6740   45.0070 O.2       1 LIG         0.0000 
     28 O25         3.1650   41.1500   45.6150 O.2       1 LIG         0.0000 
     29 HC8        11.3175   47.0605   52.4855 H         1 LIG         0.0000 
     30 H101        4.4785   45.7468   50.9686 H         1 LIG         0.0000 
     31 H102        4.8681   44.2610   51.9144 H         1 LIG         0.0000 
     32 HC11        4.1517   46.9403   53.1526 H         1 LIG         0.0000 
     33 H121        2.4447   44.4701   52.6124 H         1 LIG         0.0000 
     34 H122        2.2621   46.0620   51.8385 H         1 LIG         0.0000 
     35 H131        0.6441   45.7452   53.7088 H         1 LIG         0.0000 
     36 H132        1.7325   47.0947   53.9942 H         1 LIG         0.0000 
     37 H141        1.9120   44.3087   55.2076 H         1 LIG         0.0000 
     38 H142        1.5184   45.7906   56.0446 H         1 LIG         0.0000 
     39 H151        3.8841   45.0418   56.4166 H         1 LIG         0.0000 
     40 H152        3.7718   46.6619   55.7376 H         1 LIG         0.0000 
     41 H161        5.5122   45.4304   54.5588 H         1 LIG         0.0000 
     42 H162        4.4082   44.0928   54.2312 H         1 LIG         0.0000 
     43 HC19        3.0260   40.2190   48.4098 H         1 LIG         0.0000 
     44 HN2         8.3361   42.2626   48.3650 H         1 LIG         0.0000 
     45 HC21        6.6894   41.7186   46.7793 H         1 LIG         0.0000 
     46 H261        3.7424   38.3818   45.1707 H         1 LIG         0.0000 
     47 H262        4.1489   38.3475   46.8719 H         1 LIG         0.0000 
     48 HN9        11.7599   45.2510   50.8102 H         1 LIG         0.0000 
     49 HC17        5.9088   42.0985   50.9681 H         1 LIG         0.0000 
     50 HC18        3.7313   40.9587   50.6599 H         1 LIG         0.0000 
@<TRIPOS>BOND
     1    1   12 1    
     2    1   16 ar   
     3    1   23 ar   
     4    2   20 ar   
     5    2   21 ar   
     6    2   29 1    
     7    3    4 1    
     8    3   18 1    
     9    3   30 1    
    10    3   31 1    
    11    4    5 1    
    12    4    9 1    
    13    4   32 1    
    14    5    6 1    
    15    5   33 1    
    16    5   34 1    
    17    6    7 1    
    18    6   35 1    
    19    6   36 1    
    20    7    8 1    
    21    7   37 1    
    22    7   38 1    
    23    8    9 1    
    24    8   39 1    
    25    8   40 1    
    26    9   41 1    
    27    9   42 1    
    28   10   11 ar   
    29   10   25 ar   
    30   10   43 1    
    31   11   13 ar   
    32   11   26 1    
    33   12   14 1    
    34   12   44 1    
    35   13   14 ar   
    36   13   45 1    
    37   14   24 ar   
    38   15   26 1    
    39   15   46 1    
    40   15   47 1    
    41   16   17 ar   
    42   17   18 1    
    43   17   19 ar   
    44   19   20 ar   
    45   19   22 ar   
    46   21   22 ar   
    47   21   48 1    
    48   22   23 ar   
    49   24   25 ar   
    50   24   49 1    
    51   25   50 1    
    52   26   27 2    
    53   26   28 2    
@<TRIPOS>SUBSTRUCTURE
     1 LIG         1 GROUP             0 A     ****    0 ROOT    
