@<TRIPOS>MOLECULE
1OIY
49   52    1
SMALL
USER_CHARGES


@<TRIPOS>ATOM
      1 C1          7.8810   43.6980   49.5180 C.ar      1 LIG         0.0000 
      2 C2          4.8200   45.4890   51.6160 C.3       1 LIG         0.0000 
      3 C3          3.9450   46.0810   52.7150 C.3       1 LIG         0.0000 
      4 C4          2.4610   45.7880   52.4180 C.3       1 LIG         0.0000 
      5 C5          1.5010   46.0030   53.6110 C.3       1 LIG         0.0000 
      6 C6          2.0960   45.5600   54.9590 C.3       1 LIG         0.0000 
      7 C7          3.5120   46.1240   55.1780 C.3       1 LIG         0.0000 
      8 C8          4.4390   45.5910   54.0960 C.3       1 LIG         0.0000 
      9 C9          4.6900   40.7610   47.3980 C.ar      1 LIG         0.0000 
     10 C10         3.8070   40.8290   48.4620 C.ar      1 LIG         0.0000 
     11 C11         4.2100   41.5200   49.6130 C.ar      1 LIG         0.0000 
     12 C12         5.4670   42.1260   49.7170 C.ar      1 LIG         0.0000 
     13 N13         1.8670   39.6660   49.4840 N.am      1 LIG         0.0000 
     14 N14         6.8780   44.4040   50.1330 N.ar      1 LIG         0.0000 
     15 C15         7.1250   45.4480   50.9660 C.ar      1 LIG         0.0000 
     16 O16         6.0940   46.1500   51.5500 O.3       1 LIG         0.0000 
     17 C17         8.5350   45.8060   51.2070 C.ar      1 LIG         0.0000 
     18 N18         9.1820   46.7570   51.9440 N.2       1 LIG         0.0000 
     19 N19        10.8140   45.4530   50.8500 N.pl3     1 LIG         0.0000 
     20 C20         9.5360   45.0150   50.5430 C.ar      1 LIG         0.0000 
     21 N21         9.1970   44.0060   49.7220 N.ar      1 LIG         0.0000 
     22 N22         7.5800   42.6460   48.6920 N.pl3     1 LIG         0.0000 
     23 C23         6.3480   42.0640   48.6390 C.ar      1 LIG         0.0000 
     24 C24         5.9500   41.3700   47.4870 C.ar      1 LIG         0.0000 
     25 C25         2.4220   40.2080   48.3820 C.2       1 LIG         0.0000 
     26 C26        10.5380   46.5190   51.7020 C.ar      1 LIG         0.0000 
     27 O27         1.8160   40.2550   47.3140 O.2       1 LIG         0.0000 
     28 H28         4.3116   45.5845   50.6566 H         1 LIG         0.0000 
     29 H29         4.9719   44.4265   51.8061 H         1 LIG         0.0000 
     30 H30         4.0752   47.1629   52.6876 H         1 LIG         0.0000 
     31 H31         2.3611   44.7652   52.0546 H         1 LIG         0.0000 
     32 H32         2.1339   46.3997   51.5772 H         1 LIG         0.0000 
     33 H33         0.5722   45.4620   53.4301 H         1 LIG         0.0000 
     34 H34         1.2229   47.0555   53.6666 H         1 LIG         0.0000 
     35 H35         2.1290   44.4713   55.0005 H         1 LIG         0.0000 
     36 H36         1.4451   45.8900   55.7686 H         1 LIG         0.0000 
     37 H37         3.8793   45.8134   56.1561 H         1 LIG         0.0000 
     38 H38         3.4814   47.2123   55.1261 H         1 LIG         0.0000 
     39 H39         5.4503   45.9581   54.2711 H         1 LIG         0.0000 
     40 H40         4.4337   44.5012   54.1178 H         1 LIG         0.0000 
     41 H41         4.4093   40.2378   46.4959 H         1 LIG         0.0000 
     42 H42         3.5417   41.5979   50.4578 H         1 LIG         0.0000 
     43 H43         5.7470   42.6360   50.6269 H         1 LIG         0.0000 
     44 H44         0.9469   39.2524   49.4348 H         1 LIG         0.0000 
     45 H45         2.3712   39.6734   50.3591 H         1 LIG         0.0000 
     46 H46        11.6169   44.9848   50.4547 H         1 LIG         0.0000 
     47 H47         8.2886   42.2641   48.0820 H         1 LIG         0.0000 
     48 H48         6.6384   41.3105   46.6569 H         1 LIG         0.0000 
     49 H49        11.2870   47.1441   52.1652 H         1 LIG         0.0000 
@<TRIPOS>BOND
     1    1   14 ar   
     2    1   21 ar   
     3    1   22 1    
     4    2    3 1    
     5    2   16 1    
     6    2   28 1    
     7    2   29 1    
     8    3    4 1    
     9    3    8 1    
    10    3   30 1    
    11    4    5 1    
    12    4   31 1    
    13    4   32 1    
    14    5    6 1    
    15    5   33 1    
    16    5   34 1    
    17    6    7 1    
    18    6   35 1    
    19    6   36 1    
    20    7    8 1    
    21    7   37 1    
    22    7   38 1    
    23    8   39 1    
    24    8   40 1    
    25    9   10 ar   
    26    9   24 ar   
    27    9   41 1    
    28   10   11 ar   
    29   10   25 1    
    30   11   12 ar   
    31   11   42 1    
    32   12   23 ar   
    33   12   43 1    
    34   13   25 am   BACKBONE|DICT|INTERRES
    35   13   44 1    
    36   13   45 1    
    37   14   15 ar   
    38   15   16 1    
    39   15   17 ar   
    40   17   18 ar   
    41   17   20 ar   
    42   18   26 ar   
    43   19   20 ar   
    44   19   26 ar   
    45   19   46 1    
    46   20   21 ar   
    47   22   23 1    
    48   22   47 1    
    49   23   24 ar   
    50   24   48 1    
    51   25   27 2    
    52   26   49 1    
@<TRIPOS>SUBSTRUCTURE
     1 LIG         1 GROUP             0       ****    0 ROOT    
