@<TRIPOS>MOLECULE
but
14   13    1
SMALL
USER_CHARGES


@<TRIPOS>ATOM
      1 C1         32.0260   33.1320   29.1930 C.2       1 L1          0.0000 
      2 O1         32.8370   32.2790   28.7720 O.2       1 L1          0.0000 
      3 C2         31.2440   32.9900   30.5050 C.3       1 L1          0.0000 
      4 C3         32.0390   34.5000   28.5330 C.3       1 L1          0.0000 
      5 C4         30.6560   35.0150   28.2100 C.3       1 L1          0.0000 
      6 H1         30.9380   33.9890   30.8370 H         1 L1          0.0000 
      7 H2         30.3770   32.3570   30.2800 H         1 L1          0.0000 
      8 H3         31.8900   32.5240   31.2600 H         1 L1          0.0000 
      9 H4         32.4380   35.1390   29.3300 H         1 L1          0.0000 
     10 H5         32.7380   34.5770   27.6910 H         1 L1          0.0000 
     11 H6         29.9630   34.6420   28.9750 H         1 L1          0.0000 
     12 O2         30.6590   36.4300   28.1680 O.3       1 L1          0.0000 
     13 H7         30.2750   34.5730   27.2810 H         1 L1          0.0000 
     14 H8         29.8240   36.7700   28.5340 H         1 L1          0.0000 
@<TRIPOS>BOND
     1    1    2 2    
     2    1    3 1    
     3    1    4 1    
     4    3    6 1    
     5    3    7 1    
     6    3    8 1    
     7    4    5 1    
     8    4    9 1    
     9    4   10 1    
    10    5   11 1    
    11    5   12 1    
    12    5   13 1    
    13   12   14 1    
@<TRIPOS>SUBSTRUCTURE
     1 L1          1 GROUP             0       ****    0 ROOT    
