@<TRIPOS>MOLECULE
dap
27   26    1
SMALL
USER_CHARGES


@<TRIPOS>ATOM
      1 C1         25.6380   33.7039   30.1098 C.2       1 L1          0.0000 
      2 O1         25.6803   32.4938   30.1050 O.2       1 L1          0.0000 
      3 C2         24.6605   34.5167   31.0032 C.3       1 L1          0.0000 
      4 C3         26.8743   34.5323   29.5757 C.3       1 L1          0.0000 
      5 C4         27.6150   33.8451   28.3975 C.3       1 L1          0.0000 
      6 H1         23.9203   33.8358   31.4421 H         1 L1          0.0000 
      7 H2         25.2270   34.9217   31.8497 H         1 L1          0.0000 
      8 H3         24.2476   35.2770   30.3283 H         1 L1          0.0000 
      9 H4         26.5072   35.5302   29.3061 H         1 L1          0.0000 
     10 H5         27.4018   34.6663   30.5289 H         1 L1          0.0000 
     11 H6         27.0467   34.0208   27.4763 H         1 L1          0.0000 
     12 N1         28.9881   34.5489   28.2779 N.3       1 L1          0.0000 
     13 H7         27.7118   32.7585   28.5143 H         1 L1          0.0000 
     14 C5         29.0553   35.8901   27.7483 C.3       1 L1          0.0000 
     15 C6         29.9506   34.3906   29.4253 C.3       1 L1          0.0000 
     16 H8         29.6317   35.1091   30.1908 H         1 L1          0.0000 
     17 C7         30.1385   32.9431   29.9358 C.3       1 L1          0.0000 
     18 H9         30.9210   34.6838   29.0084 H         1 L1          0.0000 
     19 H10        29.1980   32.3962   30.0729 H         1 L1          0.0000 
     20 H11        30.7653   32.3566   29.2516 H         1 L1          0.0000 
     21 H12        30.5992   33.0337   30.9276 H         1 L1          0.0000 
     22 C8         28.3350   36.1576   26.4795 C.3       1 L1          0.0000 
     23 H13        28.6358   36.5544   28.5139 H         1 L1          0.0000 
     24 H14        30.1303   36.0950   27.6695 H         1 L1          0.0000 
     25 H15        28.6372   37.1336   26.0829 H         1 L1          0.0000 
     26 H16        28.6740   35.4657   25.6980 H         1 L1          0.0000 
     27 H17        27.2508   35.9935   26.5072 H         1 L1          0.0000 
@<TRIPOS>BOND
     1    1    2 2    
     2    1    3 1    
     3    1    4 1    
     4    3    6 1    
     5    3    7 1    
     6    3    8 1    
     7    4    5 1    
     8    4    9 1    
     9    4   10 1    
    10    5   11 1    
    11    5   12 1    
    12    5   13 1    
    13   12   14 1    
    14   12   15 1    
    15   14   22 1    
    16   14   23 1    
    17   14   24 1    
    18   15   16 1    
    19   15   17 1    
    20   15   18 1    
    21   17   19 1    
    22   17   20 1    
    23   17   21 1    
    24   22   25 1    
    25   22   26 1    
    26   22   27 1    
@<TRIPOS>SUBSTRUCTURE
     1 L1          1 GROUP             0       ****    0 ROOT    
