@<TRIPOS>MOLECULE
dapp
28   27    1
SMALL
USER_CHARGES


@<TRIPOS>ATOM
      1 C1         31.1628   31.3283   28.1007 C.2       1 L1          0.0000 
      2 O1         32.1937   30.9649   27.5072 O.2       1 L1          0.0000 
      3 C2         31.1371   32.6971   28.7903 C.3       1 L1          0.0000 
      4 C3         29.9491   30.4513   28.2773 C.3       1 L1          0.0000 
      5 C4         29.9942   29.1477   27.5205 C.3       1 L1          0.0000 
      6 N1         28.9300   28.1047   27.7399 N.4       1 L1          1.0000 
      7 C5         27.4707   28.5643   27.5859 C.3       1 L1          0.0000 
      8 C6         29.2600   26.9089   26.8173 C.3       1 L1          0.0000 
      9 C7         28.8772   25.5714   27.5437 C.3       1 L1          0.0000 
     10 C8         26.8391   28.9338   26.1615 C.3       1 L1          0.0000 
     11 H1         30.0747   32.8391   29.0267 H         1 L1          0.0000 
     12 H2         31.7752   32.5837   29.6744 H         1 L1          0.0000 
     13 H3         31.4493   33.5227   28.1391 H         1 L1          0.0000 
     14 H4         29.7836   30.2897   29.3491 H         1 L1          0.0000 
     15 H5         29.1524   31.0925   27.8817 H         1 L1          0.0000 
     16 H6         30.1532   29.3566   26.4621 H         1 L1          0.0000 
     17 H7         30.9749   28.7388   27.7672 H         1 L1          0.0000 
     18 H8         29.1046   27.7317   28.6843 H         1 L1          0.0000 
     19 H9         26.8444   27.8397   28.1101 H         1 L1          0.0000 
     20 H10        27.4740   29.4567   28.2127 H         1 L1          0.0000 
     21 H11        28.8090   27.0248   25.8304 H         1 L1          0.0000 
     22 H12        30.3405   26.7818   26.7348 H         1 L1          0.0000 
     23 H13        29.5821   24.7430   27.4003 H         1 L1          0.0000 
     24 H14        28.9480   25.7598   28.6215 H         1 L1          0.0000 
     25 H15        27.8430   25.2645   27.3415 H         1 L1          0.0000 
     26 H16        26.6309   27.9882   25.6447 H         1 L1          0.0000 
     27 H17        25.9298   29.5452   26.2189 H         1 L1          0.0000 
     28 H18        27.6091   29.4320   25.5583 H         1 L1          0.0000 
@<TRIPOS>BOND
     1    1    2 2    
     2    1    3 1    
     3    1    4 1    
     4    3   11 1    
     5    3   12 1    
     6    3   13 1    
     7    4    5 1    
     8    4   14 1    
     9    4   15 1    
    10    5    6 1    
    11    5   16 1    
    12    5   17 1    
    13    6    7 1    
    14    6    8 1    
    15    6   18 1    
    16    7   10 1    
    17    7   19 1    
    18    7   20 1    
    19    8    9 1    
    20    8   21 1    
    21    8   22 1    
    22    9   23 1    
    23    9   24 1    
    24    9   25 1    
    25   10   26 1    
    26   10   27 1    
    27   10   28 1    
@<TRIPOS>SUBSTRUCTURE
     1 L1          1 GROUP             0       ****    0 ROOT    
