@<TRIPOS>MOLECULE
dmso
10   9    1
SMALL
USER_CHARGES


@<TRIPOS>ATOM
      1 S1         32.0044   33.2592   28.8556 S.3       1 L1          0.0000 
      2 O1         32.3677   32.1128   27.9929 O.2       1 L1          0.0000 
      3 C1         31.0179   32.5515   30.1855 C.3       1 L1          0.0000 
      4 C2         33.4577   33.7169   29.8438 C.3       1 L1          0.0000 
      5 H1         31.5068   31.7945   30.8117 H         1 L1          0.0000 
      6 H2         30.6913   33.3400   30.8745 H         1 L1          0.0000 
      7 H3         30.1842   32.0587   29.6691 H         1 L1          0.0000 
      8 H4         33.0305   34.1843   30.7398 H         1 L1          0.0000 
      9 H5         33.9634   32.8007   30.1705 H         1 L1          0.0000 
     10 H6         34.0698   34.3412   29.1813 H         1 L1          0.0000 
@<TRIPOS>BOND
     1    1    2 2    
     2    1    3 1    
     3    1    4 1    
     4    3    5 1    
     5    3    6 1    
     6    3    7 1    
     7    4    8 1    
     8    4    9 1    
     9    4   10 1    
@<TRIPOS>SUBSTRUCTURE
     1 L1          1 GROUP             0       ****    0 ROOT    
