@<TRIPOS>MOLECULE
dss
14   13    1
SMALL
USER_CHARGES


@<TRIPOS>ATOM
      1 S1         33.0651   33.0575   28.8872 S.3       1 L1          0.0000 
      2 O1         33.3251   32.2957   27.6590 O.2       1 L1          0.0000 
      3 C1         33.4550   34.8315   28.5598 C.3       1 L1          0.0000 
      4 C2         31.2357   33.1637   29.0035 C.3       1 L1          0.0000 
      5 S2         30.5768   33.8892   30.5787 S.3       1 L1          0.0000 
      6 H1         34.5231   34.9934   28.3685 H         1 L1          0.0000 
      7 H2         32.7920   35.3148   27.8318 H         1 L1          0.0000 
      8 H3         33.2049   35.2624   29.5371 H         1 L1          0.0000 
      9 H4         30.8794   33.8246   28.2046 H         1 L1          0.0000 
     10 H5         30.7781   32.1707   28.9326 H         1 L1          0.0000 
     11 C3         28.9907   33.0621   30.7815 C.3       1 L1          0.0000 
     12 H6         28.4217   33.3375   29.8853 H         1 L1          0.0000 
     13 H7         29.2632   32.0064   30.8938 H         1 L1          0.0000 
     14 H8         28.3458   33.3985   31.6028 H         1 L1          0.0000 
@<TRIPOS>BOND
     1    1    2 2    
     2    1    3 1    
     3    1    4 1    
     4    3    6 1    
     5    3    7 1    
     6    3    8 1    
     7    4    5 1    
     8    4    9 1    
     9    4   10 1    
    10    5   11 1    
    11   11   12 1    
    12   11   13 1    
    13   11   14 1    
@<TRIPOS>SUBSTRUCTURE
     1 L1          1 GROUP             0       ****    0 ROOT    
