@<TRIPOS>MOLECULE
prop
11   10    1
SMALL
USER_CHARGES


@<TRIPOS>ATOM
      1 C1         32.6046   33.0188   29.2194 C.2       1 L1          0.0000 
      2 O1         33.2931   32.0991   28.7771 O.2       1 L1          0.0000 
      3 C2         31.2892   32.7522   30.0256 C.3       1 L1          0.0000 
      4 C3         32.8808   34.4741   28.8071 C.3       1 L1          0.0000 
      5 O2         31.9044   35.0012   27.8843 O.3       1 L1          0.0000 
      6 H1         31.1612   33.5755   30.7393 H         1 L1          0.0000 
      7 H2         30.4577   32.7676   29.3113 H         1 L1          0.0000 
      8 H3         31.3168   31.7253   30.4120 H         1 L1          0.0000 
      9 H4         33.0193   35.1297   29.6761 H         1 L1          0.0000 
     10 H5         33.8087   34.4582   28.2225 H         1 L1          0.0000 
     11 H6         31.5250   34.3063   27.3186 H         1 L1          0.0000 
@<TRIPOS>BOND
     1    1    2 2    
     2    1    3 1    
     3    1    4 1    
     4    3    6 1    
     5    3    7 1    
     6    3    8 1    
     7    4    5 1    
     8    4    9 1    
     9    4   10 1    
    10    5   11 1    
@<TRIPOS>SUBSTRUCTURE
     1 L1          1 GROUP             0       ****    0 ROOT    
