@<TRIPOS>MOLECULE
thi
14   14    1
SMALL
USER_CHARGES


@<TRIPOS>ATOM
      1 S1         33.2770   32.6063   28.9238 S.3       1 L1          0.0000 
      2 O1         33.3961   31.4615   27.9290 O.2       1 L1          0.0000 
      3 C1         32.4575   34.0053   28.0762 C.3       1 L1          0.0000 
      4 C2         31.8020   32.2185   29.8533 C.3       1 L1          0.0000 
      5 C3         30.7073   32.9606   29.3672 C.3       1 L1          0.0000 
      6 H1         32.0860   33.7280   27.0818 H         1 L1          0.0000 
      7 C4         31.2938   34.3189   28.9758 C.3       1 L1          0.0000 
      8 H2         33.2347   34.7777   28.0191 H         1 L1          0.0000 
      9 H3         31.6922   31.1328   29.9585 H         1 L1          0.0000 
     10 H4         32.0531   32.6994   30.8068 H         1 L1          0.0000 
     11 H5         30.5561   34.9091   28.4188 H         1 L1          0.0000 
     12 H6         31.6335   34.9749   29.7867 H         1 L1          0.0000 
     13 H7         30.2296   32.5194   28.4842 H         1 L1          0.0000 
     14 H8         29.9724   33.0935   30.1707 H         1 L1          0.0000 
@<TRIPOS>BOND
     1    1    2 2    
     2    1    3 1    
     3    1    4 1    
     4    3    6 1    
     5    3    7 1    
     6    3    8 1    
     7    4    5 1    
     8    4    9 1    
     9    4   10 1    
    10    5    7 1    
    11    5   13 1    
    12    5   14 1    
    13    7   11 1    
    14    7   12 1    
@<TRIPOS>SUBSTRUCTURE
     1 L1          1 GROUP             0       ****    0 ROOT    
